Version 4
SHEET 1 1012 680
WIRE 192 80 160 80
WIRE 192 96 192 80
WIRE 160 128 16 128
WIRE 432 160 288 160
WIRE 512 160 432 160
WIRE 160 192 112 192
WIRE -160 208 -240 208
WIRE -48 208 -80 208
WIRE 16 208 16 128
WIRE 16 208 -48 208
WIRE -240 224 -240 208
WIRE -48 224 -48 208
WIRE 112 224 112 192
FLAG 192 -64 0
FLAG -48 288 0
FLAG 16 288 0
FLAG 112 288 0
FLAG -240 304 0
FLAG 192 224 0
FLAG 96 80 0
FLAG 240 288 0
FLAG 432 304 0
FLAG 656 160 Vout
IOPIN 656 160 Out
SYMBOL OpAmps\\LM386 208 96 R0
SYMATTR InstName U1
SYMBOL voltage 192 32 R180
WINDOW 123 0 0 Left 0
WINDOW 39 0 0 Left 0
SYMATTR InstName V1
SYMATTR Value 5
SYMBOL cap -64 224 R0
SYMATTR InstName C1
SYMATTR Value 100p
SYMBOL res 0 192 R0
SYMATTR InstName R1
SYMATTR Value 100k
SYMBOL res -64 192 R90
WINDOW 0 0 56 VBottom 2
WINDOW 3 32 56 VTop 2
SYMATTR InstName R2
SYMATTR Value 470k
SYMBOL cap 96 224 R0
SYMATTR InstName C2
SYMATTR Value .1µ
SYMBOL Misc\\signal -240 208 R0
WINDOW 123 0 0 Left 0
WINDOW 39 0 0 Left 0
SYMATTR InstName V3
SYMATTR Value SINE(0 .027 46)
SYMBOL diode 176 16 R0
SYMATTR InstName D1
SYMATTR Value 1N4148
SYMBOL cap 160 64 R90
WINDOW 0 0 32 VBottom 2
WINDOW 3 32 32 VTop 2
SYMATTR InstName C3
SYMATTR Value 1µ
SYMBOL cap 224 224 R0
SYMATTR InstName C4
SYMATTR Value 10µ
SYMBOL res 416 144 R0
SYMATTR InstName R3
SYMATTR Value 2.5
SYMBOL cap 416 240 R0
SYMATTR InstName C5
SYMATTR Value .1µ
SYMBOL cap 576 144 R90
WINDOW 0 0 32 VBottom 2
WINDOW 3 32 32 VTop 2
SYMATTR InstName C6
SYMATTR Value 235µ
SYMBOL res 672 144 R90
WINDOW 0 0 56 VBottom 2
WINDOW 3 32 56 VTop 2
SYMATTR InstName R4
SYMATTR Value 10
TEXT -480 264 Left 2 ;Instrument Input
TEXT 664 120 Left 2 ;Output to headphones or ADC
TEXT -482 332 Left 2 !.tran .1
